Version 4.1
SHEET 1 1260 1124
WIRE -16 -32 -192 -32
WIRE 192 -32 -16 -32
WIRE -192 32 -192 -32
WIRE 32 112 -48 112
WIRE 192 128 192 -32
WIRE 192 128 96 128
WIRE -464 144 -544 144
WIRE -320 144 -384 144
WIRE -288 144 -320 144
WIRE -192 144 -192 96
WIRE -192 144 -208 144
WIRE -160 144 -192 144
WIRE -48 144 -48 112
WIRE -48 144 -80 144
WIRE -16 144 -16 -32
WIRE 32 144 -16 144
WIRE -544 192 -544 144
WIRE -320 208 -320 144
WIRE -48 208 -48 144
WIRE -544 336 -544 272
WIRE -320 336 -320 272
WIRE -48 336 -48 272
WIRE -992 416 -992 384
WIRE -992 416 -1072 416
WIRE -1072 432 -1072 416
WIRE -992 448 -992 416
WIRE -224 512 -416 512
WIRE 0 512 -224 512
WIRE -416 560 -416 512
WIRE -160 640 -288 640
WIRE 0 656 0 512
WIRE 0 656 -96 656
WIRE 80 656 0 656
WIRE -416 672 -416 624
WIRE -416 672 -464 672
WIRE -400 672 -416 672
WIRE -288 672 -288 640
WIRE -288 672 -320 672
WIRE -224 672 -224 512
WIRE -160 672 -224 672
WIRE 208 672 144 672
WIRE 80 688 32 688
WIRE -288 736 -288 672
WIRE 32 768 32 688
WIRE 80 768 32 768
WIRE 208 768 208 672
WIRE 208 768 160 768
WIRE 32 784 32 768
WIRE -288 880 -288 800
WIRE 32 880 32 864
FLAG -1072 432 0
FLAG -992 304 +vcc
FLAG -992 528 -vcc
FLAG -320 336 0
FLAG -48 336 0
FLAG 64 144 -vcc
FLAG 64 112 +vcc
FLAG -544 336 0
FLAG -288 880 0
FLAG -128 640 +vcc
FLAG -128 672 -vcc
FLAG 112 656 +vcc
FLAG 112 688 -vcc
FLAG 32 880 0
FLAG 192 128 out_1
FLAG 208 672 out_2
FLAG -544 672 out_1
SYMBOL voltage -992 288 R0
WINDOW 123 0 0 Left 0
WINDOW 39 24 124 Left 2
SYMATTR SpiceLine Rser=50
SYMATTR InstName V1
SYMATTR Value 12
SYMBOL voltage -992 432 R0
WINDOW 123 0 0 Left 0
WINDOW 39 24 124 Left 2
SYMATTR SpiceLine Rser=50
SYMATTR InstName V2
SYMATTR Value 12
SYMBOL res -192 128 R90
WINDOW 0 0 56 VBottom 2
WINDOW 3 32 56 VTop 2
SYMATTR InstName R8
SYMATTR Value 10k
SYMBOL res -368 128 R90
WINDOW 0 0 56 VBottom 2
WINDOW 3 32 56 VTop 2
SYMATTR InstName R9
SYMATTR Value 10k
SYMBOL res -64 128 R90
WINDOW 0 0 56 VBottom 2
WINDOW 3 32 56 VTop 2
SYMATTR InstName R10
SYMATTR Value 10k
SYMBOL voltage -544 176 R0
WINDOW 123 24 124 Left 2
WINDOW 39 24 44 Left 2
SYMATTR Value2 AC 1
SYMATTR SpiceLine Rser=50
SYMATTR InstName V4
SYMATTR Value ""
SYMBOL cap -336 208 R0
SYMATTR InstName C6
SYMATTR Value 4.7n
SYMBOL cap -64 208 R0
SYMATTR InstName C7
SYMATTR Value 1n
SYMBOL cap -208 32 R0
SYMATTR InstName C8
SYMATTR Value 5.4n
SYMBOL cap -432 560 R0
SYMATTR InstName C9
SYMATTR Value 10n
SYMBOL cap -304 736 R0
SYMATTR InstName C10
SYMATTR Value 1n
SYMBOL res -448 656 R90
WINDOW 0 0 56 VBottom 2
WINDOW 3 32 56 VTop 2
SYMATTR InstName R13
SYMATTR Value 10k
SYMBOL res -304 656 R90
WINDOW 0 0 56 VBottom 2
WINDOW 3 32 56 VTop 2
SYMATTR InstName R14
SYMATTR Value 10k
SYMBOL res 176 752 R90
WINDOW 0 0 56 VBottom 2
WINDOW 3 32 56 VTop 2
SYMATTR InstName R1
SYMATTR Value 22k
SYMBOL res 48 880 R180
WINDOW 0 36 76 Left 2
WINDOW 3 36 40 Left 2
SYMATTR InstName R2
SYMATTR Value 220
SYMBOL LM358 64 128 R0
SYMATTR InstName U1
SYMBOL LM358 -128 656 R0
SYMATTR InstName U2
SYMBOL LM358 112 672 R0
SYMATTR InstName U3
TEXT -1088 624 Left 2 !.ac dec 10 10 100k
